@<TRIPOS>MOLECULE
jose_lig.pdb
 41 45 0 0 0
SMALL
GASTEIGER

@<TRIPOS>ATOM
      1  C1        47.9130   54.1610   42.9150 C.3    64  MOR64       0.0423
      2  N1        47.2070   54.2450   45.6610 N.4    64  MOR64       0.3803
      3  O1        48.8810   54.9950   40.8650 O.3    64  MOR64      -0.4811
      4  C2        47.6800   52.8680   43.7110 C.3    64  MOR64      -0.0214
      5  O2        48.7020   52.7150   39.5780 O.3    64  MOR64      -0.3841
      6  C3        48.1210   53.1710   45.1780 C.3    64  MOR64      -0.0670
      7  O3        51.4530   56.3460   40.7130 O.3    64  MOR64      -0.5033
      8  C4        47.7630   54.1040   41.3690 C.3    64  MOR64       0.1397
      9  C5        47.0530   55.3040   43.4760 C.3    64  MOR64      -0.0542
     10  C6        49.3420   54.5420   43.0310 C.ar   64  MOR64       0.0112
     11  C7        49.6460   53.5620   45.3200 C.3    64  MOR64      -0.0389
     12  C8        47.3590   55.5340   44.9700 C.3    64  MOR64      -0.0896
     13  C9        50.1700   54.3460   44.1240 C.ar   64  MOR64      -0.0413
     14  C10       47.9290   52.6540   40.7960 C.3    64  MOR64       0.1110
     15  C11       48.5350   51.7940   43.0730 C.2    64  MOR64      -0.0829
     16  C12       49.7990   55.1140   41.8770 C.ar   64  MOR64       0.1663
     17  C13       48.6690   51.7190   41.7410 C.2    64  MOR64      -0.0560
     18  C14       47.2420   54.4260   47.1110 C.3    64  MOR64      -0.1028
     19  C15       51.4770   54.8370   44.0580 C.ar   64  MOR64      -0.0547
     20  C16       51.0690   55.6680   41.8260 C.ar   64  MOR64       0.1588
     21  C17       51.9230   55.5250   42.9240 C.ar   64  MOR64      -0.0162
     22  H4        46.7940   54.5070   41.0750 H      64  MOR64       0.0772
     23  H10       46.9390   52.2460   40.5930 H      64  MOR64       0.0675
     24  H11       49.0490   51.0700   43.7060 H      64  MOR64       0.0572
     25  H12       46.2830   53.9290   45.4470 H      64  MOR64      -0.0818
     26  H13       49.3310   50.9620   41.3210 H      64  MOR64       0.0596
     27  H14       47.1280   53.4590   47.6020 H      64  MOR64       0.0024
     28  H15       46.4280   55.0860   47.4150 H      64  MOR64       0.0024
     29  H16       48.2180   54.8680   47.3110 H      64  MOR64       0.0024
     30  H17       52.1540   54.6830   44.8980 H      64  MOR64       0.0622
     31  H18       52.9280   55.9460   42.8970 H      64  MOR64       0.0655
     32  H21       46.6260   52.5890   43.6860 H      64  MOR64       0.0337
     33  H22       49.6070   53.0910   39.7760 H      64  MOR64       0.2104
     34  H31       47.9520   52.2720   45.7720 H      64  MOR64       0.0103
     35  H32       50.7090   56.3380   40.0450 H      64  MOR64       0.2923
     36  H51       46.0000   55.0490   43.3610 H      64  MOR64       0.0257
     37  H52       47.3740   56.2080   42.9590 H      64  MOR64       0.0257
     38  H71       50.2310   52.6470   45.4190 H      64  MOR64       0.0298
     39  H72       49.6970   54.2380   46.1730 H      64  MOR64       0.0298
     40  H81       48.3790   55.9000   45.0880 H      64  MOR64       0.0059
     41  H82       46.5760   56.1930   45.3450 H      64  MOR64       0.0059
@<TRIPOS>BOND
     1     5    33    1
     2     5    14    1
     3    35     7    1
     4    23    14    1
     5     7    20    1
     6    14     8    1
     7    14    17    1
     8     3     8    1
     9     3    16    1
    10    22     8    1
    11    26    17    1
    12     8     1    1
    13    17    15    2
    14    20    16   ar
    15    20    21   ar
    16    16    10   ar
    17    31    21    1
    18     1    10    1
    19     1     9    1
    20     1     4    1
    21    21    19   ar
    22    37     9    1
    23    10    13   ar
    24    15    24    1
    25    15     4    1
    26    36     9    1
    27     9    12    1
    28    32     4    1
    29     4     6    1
    30    19    13   ar
    31    19    30    1
    32    13    11    1
    33    12    40    1
    34    12    41    1
    35    12     2    1
    36     6    11    1
    37     6     2    1
    38     6    34    1
    39    11    38    1
    40    11    39    1
    41    25     2    1
    42     2    18    1
    43    18    29    1
    44    18    28    1
    45    18    27    1
